<?xml version="1.0" encoding="UTF-8"?>

<!-- generated on 2025-03-20 02:03:59 by Eclipse SUMO netedit Version 1.21.0
-->

<routes xmlns:xsi="http://www.w3.org/2001/XMLSchema-instance" xsi:noNamespaceSchemaLocation="http://sumo.dlr.de/xsd/routes_file.xsd">
    <!-- Vehicles, persons and containers (sorted by depart) -->
    <flow id="f_0" begin="0.00" from="RoadSM" to="RoadMW" end="3600.00" vehsPerHour="50"/>
    <flow id="f_1" begin="0.00" from="RoadNM" to="RoadMW" end="3600.00" vehsPerHour="50"/>
</routes>
