<?xml version="1.0" encoding="UTF-8"?>
<routes xmlns:xsi="http://www.w3.org/2001/XMLSchema-instance" xsi:noNamespaceSchemaLocation="http://sumo.dlr.de/xsd/routes_file.xsd">
    <!-- Define routes -->
    <route id="route_0" edges="E5 E1"/>
    <route id="route_1" edges="E6 E1"/>

    <!-- Define vehicles that use the routes -->
    <vehicle id="0" route="route_0" depart="0"/>
    <vehicle id="1" route="route_1" depart="0"/>
    <vehicle id="2" route="route_0" depart="1"/>
    <vehicle id="3" route="route_0" depart="2"/>
    <vehicle id="4" route="route_0" depart="3"/>
    <vehicle id="5" route="route_1" depart="3"/>
    <vehicle id="6" route="route_1" depart="4"/>
    <vehicle id="7" route="route_1" depart="5"/>
    <vehicle id="8" route="route_0" depart="7"/>
    <vehicle id="9" route="route_0" depart="7.5"/>
    <vehicle id="10" route="route_0" depart="9"/>
    <vehicle id="11" route="route_1" depart="9"/>
    <vehicle id="12" route="route_0" depart="10"/>
    <vehicle id="13" route="route_0" depart="10.5"/>
    <vehicle id="14" route="route_0" depart="11"/>
    <vehicle id="15" route="route_1" depart="11"/>
    <vehicle id="16" route="route_1" depart="13"/>
    <vehicle id="17" route="route_1" depart="13.5"/>
    <vehicle id="18" route="route_0" depart="14"/>
    <vehicle id="19" route="route_1" depart="15"/>
    <vehicle id="20" route="route_1" depart="17"/>
</routes>