<?xml version="1.0" encoding="UTF-8"?>

<!-- generated on 2025-03-19 03:09:21 by Eclipse SUMO netedit Version 1.21.0
-->

<additional xmlns:xsi="http://www.w3.org/2001/XMLSchema-instance" xsi:noNamespaceSchemaLocation="http://sumo.dlr.de/xsd/additional_file.xsd">
    <!-- Detectors -->
    <laneAreaDetector id="DetEM_0" lane="RoadEM_0" pos="125.00" length="52.50" period="300.00" file="DetEM_0.xml"/>
    <laneAreaDetector id="DetEM_1" lane="RoadEM_1" pos="125.00" length="52.50" period="300.00" file="DetEM_1.xml"/>
    <laneAreaDetector id="DetEM_2" lane="RoadEM_2" pos="125.00" length="52.50" period="300.00" file="DetEM_2.xml"/>
    <laneAreaDetector id="DetEM_3" lane="RoadEM_3" pos="125.00" length="52.50" period="300.00" file="DetEM_3.xml"/>
    <laneAreaDetector id="DetEM_4" lane="RoadEM_4" pos="125.00" length="52.50" period="300.00" file="DetEM_4.xml"/>
    <laneAreaDetector id="DetNM_0" lane="RoadNM_0" pos="125.00" length="52.50" period="300.00" file="DetNM_0.xml"/>
    <laneAreaDetector id="DetNM_1" lane="RoadNM_1" pos="125.00" length="52.50" period="300.00" file="DetNM_1.xml"/>
    <laneAreaDetector id="DetNM_2" lane="RoadNM_2" pos="125.00" length="52.50" period="300.00" file="DetNM_2.xml"/>
    <laneAreaDetector id="DetNM_3" lane="RoadNM_3" pos="125.00" length="52.50" period="300.00" file="DetNM_3.xml"/>
    <laneAreaDetector id="DetNM_4" lane="RoadNM_4" pos="125.00" length="52.50" period="300.00" file="DetNM_4.xml"/>
    <laneAreaDetector id="DetSM_0" lane="RoadSM_0" pos="125.00" length="52.50" period="300.00" file="DetSM_0.xml"/>
    <laneAreaDetector id="DetSM_1" lane="RoadSM_1" pos="125.00" length="52.50" period="300.00" file="DetSM_1.xml"/>
    <laneAreaDetector id="DetSM_2" lane="RoadSM_2" pos="125.00" length="52.50" period="300.00" file="DetSM_2.xml"/>
    <laneAreaDetector id="DetSM_3" lane="RoadSM_3" pos="125.00" length="52.50" period="300.00" file="DetSM_3.xml"/>
    <laneAreaDetector id="DetSM_4" lane="RoadSM_4" pos="125.00" length="52.50" period="300.00" file="DetSM_4.xml"/>
    <laneAreaDetector id="DetWM_0" lane="RoadWM_0" pos="125.00" length="52.50" period="300.00" file="DetWM_0.xml"/>
    <laneAreaDetector id="DetWM_1" lane="RoadWM_1" pos="125.00" length="52.50" period="300.00" file="DetWM_1.xml"/>
    <laneAreaDetector id="DetWM_2" lane="RoadWM_2" pos="125.00" length="52.50" period="300.00" file="DetWM_2.xml"/>
    <laneAreaDetector id="DetWM_3" lane="RoadWM_3" pos="125.00" length="52.50" period="300.00" file="DetWM_3.xml"/>
    <laneAreaDetector id="DetWM_4" lane="RoadWM_4" pos="125.00" length="52.50" period="300.00" file="DetWM_4.xml"/>
</additional>
