<?xml version="1.0" encoding="UTF-8"?>
<routes xmlns:xsi="http://www.w3.org/2001/XMLSchema-instance" xsi:noNamespaceSchemaLocation="http://sumo.dlr.de/xsd/routes_file.xsd">
    <!-- Define routes -->
    <route id="route_0" edges="E5 E1"/>
    <route id="route_1" edges="E6 E1"/>

    <!-- Define vehicles that use the routes -->
<vehicle id="0" route="route_1" depart="16.810674596170184"/>
<vehicle id="1" route="route_1" depart="19.65617293606543"/>
<vehicle id="2" route="route_1" depart="61.26312547257879"/>
<vehicle id="3" route="route_1" depart="68.65712694068682"/>
<vehicle id="4" route="route_0" depart="73.99437255873221"/>
<vehicle id="5" route="route_1" depart="92.03012927418554"/>
<vehicle id="6" route="route_0" depart="92.361164404911"/>
<vehicle id="7" route="route_1" depart="111.03471366426882"/>
<vehicle id="8" route="route_0" depart="120.87033462923542"/>
<vehicle id="9" route="route_1" depart="130.87886595754676"/>
<vehicle id="10" route="route_1" depart="131.27775884412281"/>
<vehicle id="11" route="route_1" depart="153.20633152285023"/>
<vehicle id="12" route="route_0" depart="157.9484034016645"/>
<vehicle id="13" route="route_0" depart="185.8339101132608"/>
<vehicle id="14" route="route_1" depart="198.56872126888425"/>
</routes>