<?xml version="1.0" encoding="UTF-8"?>
<routes xmlns:xsi="http://www.w3.org/2001/XMLSchema-instance" xsi:noNamespaceSchemaLocation="http://sumo.dlr.de/xsd/routes_file.xsd">
    <!-- Define routes -->
    <route id="route_0" edges="E5 E1"/>
    <route id="route_1" edges="E6 E1"/>

    <!-- Define vehicles that use the routes -->
<vehicle id="0" route="route_1" depart="14.096774693047731"/>
<vehicle id="1" route="route_0" depart="15.760897914786277"/>
<vehicle id="2" route="route_1" depart="17.0207324624168"/>
<vehicle id="3" route="route_1" depart="46.410062090779626"/>
<vehicle id="4" route="route_1" depart="57.29820974956827"/>
<vehicle id="5" route="route_1" depart="58.168957053595946"/>
<vehicle id="6" route="route_0" depart="73.08729417455315"/>
<vehicle id="7" route="route_1" depart="87.47207098793336"/>
<vehicle id="8" route="route_0" depart="100.63806893768938"/>
<vehicle id="9" route="route_1" depart="118.17311953042716"/>
<vehicle id="10" route="route_1" depart="134.71622289737718"/>
<vehicle id="11" route="route_1" depart="135.32908423493862"/>
<vehicle id="12" route="route_0" depart="146.43773316460616"/>
<vehicle id="13" route="route_0" depart="160.56596157550337"/>
<vehicle id="14" route="route_0" depart="197.90911658313632"/>
</routes>