<?xml version="1.0" encoding="UTF-8"?>
<routes xmlns:xsi="http://www.w3.org/2001/XMLSchema-instance" xsi:noNamespaceSchemaLocation="http://sumo.dlr.de/xsd/routes_file.xsd">
    <!-- Define routes -->
    <route id="route_0" edges="E5 E1"/>
    <route id="route_1" edges="E6 E1"/>

    <!-- Define vehicles that use the routes -->
<vehicle id="0" route="route_0" depart="11.570478047643995"/>
<vehicle id="1" route="route_1" depart="15.081646453646847"/>
<vehicle id="2" route="route_1" depart="20.326453359474982"/>
<vehicle id="3" route="route_0" depart="30.390144231214244"/>
<vehicle id="4" route="route_0" depart="64.90649891927707"/>
<vehicle id="5" route="route_0" depart="81.84605802528743"/>
<vehicle id="6" route="route_1" depart="119.17595642020376"/>
<vehicle id="7" route="route_1" depart="119.82696203043943"/>
<vehicle id="8" route="route_1" depart="130.8377823145851"/>
<vehicle id="9" route="route_0" depart="141.60561311191387"/>
<vehicle id="10" route="route_0" depart="176.32080433431105"/>
<vehicle id="11" route="route_1" depart="176.5667444341518"/>
<vehicle id="12" route="route_1" depart="184.99397958257782"/>
<vehicle id="13" route="route_1" depart="192.89296794433747"/>
<vehicle id="14" route="route_0" depart="195.54390712232416"/>
</routes>