<?xml version="1.0" encoding="UTF-8"?>
<routes xmlns:xsi="http://www.w3.org/2001/XMLSchema-instance" xsi:noNamespaceSchemaLocation="http://sumo.dlr.de/xsd/routes_file.xsd">
    <!-- Define routes -->
    <route id="route_0" edges="E5 E1"/>
    <route id="route_1" edges="E6 E1"/>

    <!-- Define vehicles that use the routes -->
<vehicle id="0" route="route_1" depart="1.0315655449638195"/>
<vehicle id="1" route="route_0" depart="11.634517819564149"/>
<vehicle id="2" route="route_1" depart="12.475349710640927"/>
<vehicle id="3" route="route_0" depart="22.83662140657303"/>
<vehicle id="4" route="route_1" depart="32.010518374015426"/>
<vehicle id="5" route="route_1" depart="38.902453608715824"/>
<vehicle id="6" route="route_0" depart="43.983200859068596"/>
<vehicle id="7" route="route_0" depart="53.9944361459292"/>
<vehicle id="8" route="route_0" depart="64.22555862723895"/>
<vehicle id="9" route="route_0" depart="64.88099413391546"/>
<vehicle id="10" route="route_1" depart="94.5324752310636"/>
<vehicle id="11" route="route_1" depart="131.78273567980122"/>
<vehicle id="12" route="route_0" depart="157.9295643161211"/>
<vehicle id="13" route="route_1" depart="177.85375398269733"/>
<vehicle id="14" route="route_1" depart="185.14473347571004"/>
</routes>