<?xml version="1.0" encoding="UTF-8"?>
<routes xmlns:xsi="http://www.w3.org/2001/XMLSchema-instance" xsi:noNamespaceSchemaLocation="http://sumo.dlr.de/xsd/routes_file.xsd">
    <!-- Define routes -->
    <route id="route_0" edges="E5 E1"/>
    <route id="route_1" edges="E6 E1"/>

    <!-- Define vehicles that use the routes -->
<vehicle id="0" route="route_0" depart="4.029781136335542"/>
<vehicle id="1" route="route_1" depart="6.452842705747575"/>
<vehicle id="2" route="route_1" depart="7.49175367861612"/>
<vehicle id="3" route="route_0" depart="8.103755510208387"/>
<vehicle id="4" route="route_1" depart="11.91801982725842"/>
<vehicle id="5" route="route_1" depart="15.13022998387834"/>
<vehicle id="6" route="route_0" depart="21.60928588674993"/>
<vehicle id="7" route="route_1" depart="46.51815695688703"/>
<vehicle id="8" route="route_1" depart="47.38724959633542"/>
<vehicle id="9" route="route_1" depart="54.2438842675965"/>
<vehicle id="10" route="route_1" depart="55.55287751953672"/>
<vehicle id="11" route="route_0" depart="58.63991419272805"/>
<vehicle id="12" route="route_0" depart="75.83262386490419"/>
<vehicle id="13" route="route_1" depart="76.8493482054661"/>
<vehicle id="14" route="route_1" depart="86.2034507465785"/>
<vehicle id="15" route="route_0" depart="87.35119864527086"/>
<vehicle id="16" route="route_1" depart="91.38557539383223"/>
<vehicle id="17" route="route_1" depart="93.85976815850938"/>
<vehicle id="18" route="route_1" depart="102.86652146231245"/>
<vehicle id="19" route="route_1" depart="113.69545054815073"/>
<vehicle id="20" route="route_0" depart="114.81979813127701"/>
<vehicle id="21" route="route_1" depart="122.39837291984308"/>
<vehicle id="22" route="route_1" depart="138.76044898730194"/>
<vehicle id="23" route="route_1" depart="151.7555813973758"/>
<vehicle id="24" route="route_0" depart="165.94447560019736"/>
<vehicle id="25" route="route_0" depart="172.88744875607057"/>
<vehicle id="26" route="route_0" depart="188.05520814523706"/>
<vehicle id="27" route="route_1" depart="188.08379232846434"/>
<vehicle id="28" route="route_1" depart="189.70482860333018"/>
<vehicle id="29" route="route_0" depart="195.12393911638054"/>
</routes>