<?xml version="1.0" encoding="UTF-8"?>
<routes xmlns:xsi="http://www.w3.org/2001/XMLSchema-instance" xsi:noNamespaceSchemaLocation="http://sumo.dlr.de/xsd/routes_file.xsd">
    <!-- Define routes -->
    <route id="route_0" edges="E3 -E4"/>
    <route id="route_1" edges="E3 -E6"/>
    <route id="route_2" edges="E4 -E5"/>
    <route id="route_3" edges="E4 -E3"/>
    <route id="route_4" edges="E5 -E3"/>
    <route id="route_5" edges="E5 -E6"/>
    <route id="route_6" edges="E6 -E4"/>
    <route id="route_7" edges="E6 -E5"/>

    <!-- Define vehicles that use the routes -->
<vehicle id="0" route="route_4" depart="4.5277804619679"/>
<vehicle id="1" route="route_1" depart="10.430727969831931"/>
<vehicle id="2" route="route_0" depart="16.188075498519737"/>
<vehicle id="3" route="route_5" depart="16.890469951174445"/>
<vehicle id="4" route="route_3" depart="19.132689892663535"/>
<vehicle id="5" route="route_6" depart="19.5345763311206"/>
<vehicle id="6" route="route_6" depart="20.548089045942508"/>
<vehicle id="7" route="route_0" depart="57.81483760899155"/>
<vehicle id="8" route="route_2" depart="62.84530281690832"/>
<vehicle id="9" route="route_2" depart="72.59700691752906"/>
<vehicle id="10" route="route_6" depart="77.02182980971136"/>
<vehicle id="11" route="route_5" depart="87.00825092906842"/>
<vehicle id="12" route="route_0" depart="94.34147447660398"/>
<vehicle id="13" route="route_1" depart="103.80789266867865"/>
<vehicle id="14" route="route_0" depart="105.0379210885605"/>
<vehicle id="15" route="route_1" depart="114.14371793843688"/>
<vehicle id="16" route="route_4" depart="121.36229982064198"/>
<vehicle id="17" route="route_0" depart="157.5050929246054"/>
<vehicle id="18" route="route_1" depart="169.44302575252286"/>
<vehicle id="19" route="route_1" depart="180.68068387004936"/>
<vehicle id="20" route="route_5" depart="206.83814558310416"/>
<vehicle id="21" route="route_1" depart="212.73203640600792"/>
<vehicle id="22" route="route_5" depart="215.0796514668015"/>
<vehicle id="23" route="route_2" depart="216.06325180238542"/>
<vehicle id="24" route="route_1" depart="216.18507253123747"/>
<vehicle id="25" route="route_4" depart="218.07008349503542"/>
<vehicle id="26" route="route_0" depart="235.97210048150217"/>
<vehicle id="27" route="route_4" depart="244.44443571769554"/>
<vehicle id="28" route="route_5" depart="249.0351077219454"/>
<vehicle id="29" route="route_1" depart="250.2915760896006"/>
<vehicle id="30" route="route_3" depart="256.21431953222145"/>
<vehicle id="31" route="route_4" depart="260.2640763609335"/>
<vehicle id="32" route="route_6" depart="263.53772710751707"/>
<vehicle id="33" route="route_0" depart="268.98250928606006"/>
<vehicle id="34" route="route_1" depart="279.56375368111776"/>
<vehicle id="35" route="route_4" depart="283.25636115990466"/>
<vehicle id="36" route="route_2" depart="284.31822501215566"/>
<vehicle id="37" route="route_3" depart="290.2643538015452"/>
<vehicle id="38" route="route_6" depart="292.6809703825402"/>
<vehicle id="39" route="route_6" depart="296.73508447933216"/>
</routes>