<?xml version="1.0" encoding="UTF-8"?>
<routes xmlns:xsi="http://www.w3.org/2001/XMLSchema-instance" xsi:noNamespaceSchemaLocation="http://sumo.dlr.de/xsd/routes_file.xsd">
    <!-- Define routes -->
    <route id="route_0" edges="E5 E1"/>
    <route id="route_1" edges="E6 E1"/>

    <!-- Define vehicles that use the routes -->
<vehicle id="0" route="route_1" depart="3.683908530657787"/>
<vehicle id="1" route="route_1" depart="7.14952050925195"/>
<vehicle id="2" route="route_1" depart="8.47923486372455"/>
<vehicle id="3" route="route_1" depart="8.946073968770317"/>
<vehicle id="4" route="route_0" depart="10.801732621959914"/>
<vehicle id="5" route="route_0" depart="13.056038329461629"/>
<vehicle id="6" route="route_0" depart="18.452871554434005"/>
<vehicle id="7" route="route_0" depart="20.484625405605826"/>
<vehicle id="8" route="route_0" depart="26.388217164592476"/>
<vehicle id="9" route="route_0" depart="28.274268733204956"/>
<vehicle id="10" route="route_1" depart="45.73549522985589"/>
<vehicle id="11" route="route_0" depart="54.07464971381233"/>
<vehicle id="12" route="route_0" depart="56.51663236973042"/>
<vehicle id="13" route="route_1" depart="56.92002947225387"/>
<vehicle id="14" route="route_1" depart="73.27523326736356"/>
<vehicle id="15" route="route_1" depart="86.97183128424749"/>
<vehicle id="16" route="route_0" depart="96.39582194977933"/>
<vehicle id="17" route="route_1" depart="96.54354789259469"/>
<vehicle id="18" route="route_0" depart="102.84155419285833"/>
<vehicle id="19" route="route_0" depart="115.88237851164205"/>
<vehicle id="20" route="route_1" depart="132.5693150547355"/>
<vehicle id="21" route="route_1" depart="142.73017375553678"/>
<vehicle id="22" route="route_1" depart="143.39715289269122"/>
<vehicle id="23" route="route_0" depart="146.0458200543664"/>
<vehicle id="24" route="route_0" depart="146.83442200396158"/>
<vehicle id="25" route="route_1" depart="167.16128528922226"/>
<vehicle id="26" route="route_0" depart="188.37292004932934"/>
<vehicle id="27" route="route_1" depart="189.3315127915192"/>
<vehicle id="28" route="route_0" depart="197.43875501149716"/>
<vehicle id="29" route="route_0" depart="197.44893706800804"/>
</routes>