<?xml version="1.0" encoding="UTF-8"?>
<routes xmlns:xsi="http://www.w3.org/2001/XMLSchema-instance" xsi:noNamespaceSchemaLocation="http://sumo.dlr.de/xsd/routes_file.xsd">
    <!-- Define routes -->
    <route id="route_0" edges="E5 E1"/>
    <route id="route_1" edges="E6 E1"/>

    <!-- Define vehicles that use the routes -->
<vehicle id="0" route="route_0" depart="30.44247267639204"/>
<vehicle id="1" route="route_1" depart="31.21188369589212"/>
<vehicle id="2" route="route_1" depart="38.77122415749889"/>
<vehicle id="3" route="route_0" depart="42.21474249816188"/>
<vehicle id="4" route="route_1" depart="43.00864680236458"/>
<vehicle id="5" route="route_0" depart="54.132587160364"/>
<vehicle id="6" route="route_1" depart="56.55265634986208"/>
<vehicle id="7" route="route_0" depart="76.09281582313447"/>
<vehicle id="8" route="route_0" depart="80.95094530250122"/>
<vehicle id="9" route="route_1" depart="100.81991345405767"/>
<vehicle id="10" route="route_0" depart="101.4055537545706"/>
<vehicle id="11" route="route_0" depart="109.78441988118352"/>
<vehicle id="12" route="route_1" depart="111.63509433791445"/>
<vehicle id="13" route="route_0" depart="113.98233554531076"/>
<vehicle id="14" route="route_0" depart="121.89346272292802"/>
<vehicle id="15" route="route_0" depart="124.94438295310535"/>
<vehicle id="16" route="route_0" depart="129.5354399238563"/>
<vehicle id="17" route="route_1" depart="129.54452936562893"/>
<vehicle id="18" route="route_1" depart="137.42200733733642"/>
<vehicle id="19" route="route_0" depart="140.75471525959807"/>
<vehicle id="20" route="route_0" depart="144.61741942643"/>
<vehicle id="21" route="route_0" depart="146.48358654629646"/>
<vehicle id="22" route="route_0" depart="149.47030450349814"/>
<vehicle id="23" route="route_1" depart="152.27841764916195"/>
<vehicle id="24" route="route_1" depart="154.42656256886062"/>
<vehicle id="25" route="route_1" depart="171.05959859161226"/>
<vehicle id="26" route="route_0" depart="179.19862342138381"/>
<vehicle id="27" route="route_0" depart="194.03420165874505"/>
<vehicle id="28" route="route_1" depart="195.98071359745595"/>
<vehicle id="29" route="route_1" depart="197.35566247940582"/>
</routes>