<?xml version="1.0" encoding="UTF-8"?>
<routes xmlns:xsi="http://www.w3.org/2001/XMLSchema-instance" xsi:noNamespaceSchemaLocation="http://sumo.dlr.de/xsd/routes_file.xsd">
    <!-- Define routes -->
    <route id="route_0" edges="E5 E1"/>
    <route id="route_1" edges="E6 E1"/>

    <!-- Define vehicles that use the routes -->
<vehicle id="0" route="route_0" depart="3.793224737149603"/>
<vehicle id="1" route="route_0" depart="10.608659915069808"/>
<vehicle id="2" route="route_1" depart="12.66734973363095"/>
<vehicle id="3" route="route_0" depart="24.854723204714446"/>
<vehicle id="4" route="route_1" depart="26.07888284518698"/>
<vehicle id="5" route="route_1" depart="39.47572434012461"/>
<vehicle id="6" route="route_0" depart="59.73058586181692"/>
<vehicle id="7" route="route_0" depart="65.26196764515177"/>
<vehicle id="8" route="route_1" depart="69.15906611015726"/>
<vehicle id="9" route="route_0" depart="83.21447804154234"/>
<vehicle id="10" route="route_0" depart="84.93183058134778"/>
<vehicle id="11" route="route_1" depart="92.00907086927512"/>
<vehicle id="12" route="route_0" depart="110.24694175890647"/>
<vehicle id="13" route="route_1" depart="112.17026458582622"/>
<vehicle id="14" route="route_1" depart="117.22812818740024"/>
<vehicle id="15" route="route_0" depart="118.09830101766725"/>
<vehicle id="16" route="route_1" depart="120.59703531589616"/>
<vehicle id="17" route="route_0" depart="125.13722592327173"/>
<vehicle id="18" route="route_0" depart="127.66689227770276"/>
<vehicle id="19" route="route_0" depart="132.9304248365189"/>
<vehicle id="20" route="route_0" depart="141.64945841722823"/>
<vehicle id="21" route="route_0" depart="147.0615947670702"/>
<vehicle id="22" route="route_1" depart="147.89930986630327"/>
<vehicle id="23" route="route_0" depart="152.2664916332655"/>
<vehicle id="24" route="route_1" depart="164.4271310170316"/>
<vehicle id="25" route="route_1" depart="170.45507138615235"/>
<vehicle id="26" route="route_1" depart="176.09395845643218"/>
<vehicle id="27" route="route_1" depart="182.1048528848756"/>
<vehicle id="28" route="route_1" depart="184.09495639147363"/>
<vehicle id="29" route="route_1" depart="187.65556972962904"/>
</routes>