<?xml version="1.0" encoding="UTF-8"?>
<routes xmlns:xsi="http://www.w3.org/2001/XMLSchema-instance" xsi:noNamespaceSchemaLocation="http://sumo.dlr.de/xsd/routes_file.xsd">
    <!-- Define routes -->
    <route id="route_0" edges="E5 E1"/>
    <route id="route_1" edges="E6 E1"/>

    <!-- Define vehicles that use the routes -->
<vehicle id="0" route="route_0" depart="1.4091958856614628"/>
<vehicle id="1" route="route_0" depart="2.7273530346964003"/>
<vehicle id="2" route="route_0" depart="9.901785217828362"/>
<vehicle id="3" route="route_0" depart="12.258739917596406"/>
<vehicle id="4" route="route_0" depart="13.171670938236456"/>
<vehicle id="5" route="route_0" depart="14.356316953373582"/>
<vehicle id="6" route="route_1" depart="14.706629335503042"/>
<vehicle id="7" route="route_1" depart="17.033971085391286"/>
<vehicle id="8" route="route_0" depart="20.482818140241555"/>
<vehicle id="9" route="route_0" depart="21.785196534749197"/>
<vehicle id="10" route="route_1" depart="32.64561908336394"/>
<vehicle id="11" route="route_0" depart="38.817237726728735"/>
<vehicle id="12" route="route_1" depart="43.575753344973876"/>
<vehicle id="13" route="route_0" depart="50.63275760382435"/>
<vehicle id="14" route="route_0" depart="54.79876220035851"/>
<vehicle id="15" route="route_0" depart="63.4643377537919"/>
<vehicle id="16" route="route_1" depart="68.90037657185644"/>
<vehicle id="17" route="route_1" depart="79.54593964697632"/>
<vehicle id="18" route="route_0" depart="86.69382610198728"/>
<vehicle id="19" route="route_1" depart="87.5545759282046"/>
<vehicle id="20" route="route_1" depart="87.59573717943914"/>
<vehicle id="21" route="route_1" depart="89.82391387530863"/>
<vehicle id="22" route="route_1" depart="92.81133279028752"/>
<vehicle id="23" route="route_1" depart="94.19118474447674"/>
<vehicle id="24" route="route_1" depart="99.29890144088627"/>
<vehicle id="25" route="route_1" depart="105.67410004787381"/>
<vehicle id="26" route="route_1" depart="108.67308939489307"/>
<vehicle id="27" route="route_0" depart="108.9137583940537"/>
<vehicle id="28" route="route_1" depart="117.90426858360081"/>
<vehicle id="29" route="route_0" depart="119.4017485350255"/>
<vehicle id="30" route="route_0" depart="122.00638752707404"/>
<vehicle id="31" route="route_0" depart="131.35709790446793"/>
<vehicle id="32" route="route_0" depart="133.5061671944846"/>
<vehicle id="33" route="route_0" depart="145.5605416144794"/>
<vehicle id="34" route="route_1" depart="154.46228165659193"/>
<vehicle id="35" route="route_0" depart="156.07014220814176"/>
<vehicle id="36" route="route_1" depart="161.87676532961459"/>
<vehicle id="37" route="route_1" depart="165.53174775619405"/>
<vehicle id="38" route="route_0" depart="165.72644180871433"/>
<vehicle id="39" route="route_1" depart="165.95118984825507"/>
<vehicle id="40" route="route_0" depart="167.62101197594137"/>
<vehicle id="41" route="route_0" depart="168.29523103661447"/>
<vehicle id="42" route="route_0" depart="169.19270138724164"/>
<vehicle id="43" route="route_0" depart="178.04334421575453"/>
<vehicle id="44" route="route_1" depart="179.0168534259309"/>
<vehicle id="45" route="route_1" depart="184.75624421966774"/>
<vehicle id="46" route="route_0" depart="186.1293207221879"/>
<vehicle id="47" route="route_0" depart="212.12290177164283"/>
<vehicle id="48" route="route_1" depart="219.151078154156"/>
<vehicle id="49" route="route_1" depart="219.42429416402098"/>
<vehicle id="50" route="route_1" depart="225.91669730867181"/>
<vehicle id="51" route="route_0" depart="226.514362788667"/>
<vehicle id="52" route="route_1" depart="227.13169721424066"/>
<vehicle id="53" route="route_0" depart="236.04624889898795"/>
<vehicle id="54" route="route_1" depart="236.5630890623286"/>
<vehicle id="55" route="route_0" depart="239.40525968498372"/>
<vehicle id="56" route="route_1" depart="239.94173400368413"/>
<vehicle id="57" route="route_0" depart="241.03500857174043"/>
<vehicle id="58" route="route_0" depart="246.20733514943527"/>
<vehicle id="59" route="route_1" depart="247.70124077285917"/>
<vehicle id="60" route="route_1" depart="250.5231586662402"/>
<vehicle id="61" route="route_0" depart="259.1028663144841"/>
<vehicle id="62" route="route_1" depart="269.8422005058746"/>
<vehicle id="63" route="route_1" depart="270.67901248743897"/>
<vehicle id="64" route="route_0" depart="280.096073840599"/>
<vehicle id="65" route="route_1" depart="281.2951146672583"/>
<vehicle id="66" route="route_1" depart="287.98985001774514"/>
<vehicle id="67" route="route_0" depart="296.0110939060305"/>
<vehicle id="68" route="route_1" depart="307.22375263799717"/>
<vehicle id="69" route="route_0" depart="307.5016607461584"/>
<vehicle id="70" route="route_1" depart="307.6796999532462"/>
<vehicle id="71" route="route_0" depart="311.511576360645"/>
<vehicle id="72" route="route_1" depart="311.5157579877116"/>
<vehicle id="73" route="route_0" depart="315.23829070670826"/>
<vehicle id="74" route="route_0" depart="316.6317442016214"/>
<vehicle id="75" route="route_1" depart="324.94204437356643"/>
<vehicle id="76" route="route_1" depart="326.2432656590057"/>
<vehicle id="77" route="route_1" depart="329.8792480899384"/>
<vehicle id="78" route="route_1" depart="335.90676599866896"/>
<vehicle id="79" route="route_1" depart="339.6917838505776"/>
<vehicle id="80" route="route_0" depart="339.82003013162955"/>
<vehicle id="81" route="route_1" depart="357.55835036153263"/>
<vehicle id="82" route="route_0" depart="359.03612250363483"/>
<vehicle id="83" route="route_1" depart="367.79227350129827"/>
<vehicle id="84" route="route_0" depart="371.84327924906137"/>
<vehicle id="85" route="route_1" depart="375.35378207534654"/>
<vehicle id="86" route="route_0" depart="377.08448914494"/>
<vehicle id="87" route="route_0" depart="377.67184929157537"/>
<vehicle id="88" route="route_0" depart="382.88914799199483"/>
<vehicle id="89" route="route_1" depart="389.37558401276993"/>
<vehicle id="90" route="route_0" depart="391.6252852746853"/>
<vehicle id="91" route="route_1" depart="394.0624057380036"/>
<vehicle id="92" route="route_1" depart="403.67120318406637"/>
<vehicle id="93" route="route_1" depart="406.3752153869117"/>
<vehicle id="94" route="route_1" depart="406.74428823863053"/>
<vehicle id="95" route="route_1" depart="416.24948159132083"/>
<vehicle id="96" route="route_1" depart="429.9128220125943"/>
<vehicle id="97" route="route_1" depart="430.1490103426121"/>
<vehicle id="98" route="route_0" depart="434.74322231842433"/>
<vehicle id="99" route="route_0" depart="440.2126339216781"/>
<vehicle id="100" route="route_1" depart="456.55891882816337"/>
<vehicle id="101" route="route_0" depart="460.95112383145795"/>
<vehicle id="102" route="route_0" depart="461.51962800683776"/>
<vehicle id="103" route="route_1" depart="470.28452972919956"/>
<vehicle id="104" route="route_1" depart="474.7611049234991"/>
<vehicle id="105" route="route_0" depart="476.4565675309967"/>
<vehicle id="106" route="route_1" depart="488.2055814046669"/>
<vehicle id="107" route="route_1" depart="491.8272518114395"/>
<vehicle id="108" route="route_0" depart="500.75315733592527"/>
<vehicle id="109" route="route_0" depart="518.7441308990045"/>
<vehicle id="110" route="route_1" depart="524.4359228152512"/>
<vehicle id="111" route="route_0" depart="525.4000605432917"/>
<vehicle id="112" route="route_1" depart="533.5651184546615"/>
<vehicle id="113" route="route_1" depart="541.8155673738785"/>
<vehicle id="114" route="route_0" depart="541.9568364064379"/>
<vehicle id="115" route="route_0" depart="545.1643885176355"/>
<vehicle id="116" route="route_1" depart="564.4606302601425"/>
<vehicle id="117" route="route_1" depart="568.7038704131113"/>
<vehicle id="118" route="route_0" depart="579.76295522512"/>
<vehicle id="119" route="route_0" depart="584.32670653806"/>
<vehicle id="120" route="route_1" depart="586.9609097166389"/>
<vehicle id="121" route="route_0" depart="601.0506771150585"/>
<vehicle id="122" route="route_0" depart="602.8161545643694"/>
<vehicle id="123" route="route_1" depart="606.9536359855897"/>
<vehicle id="124" route="route_0" depart="611.8063756875414"/>
<vehicle id="125" route="route_1" depart="616.5432232528723"/>
<vehicle id="126" route="route_1" depart="622.7724511961987"/>
<vehicle id="127" route="route_1" depart="631.675296894999"/>
<vehicle id="128" route="route_1" depart="633.9115961945738"/>
<vehicle id="129" route="route_0" depart="635.1855433052027"/>
<vehicle id="130" route="route_1" depart="635.2720499996258"/>
<vehicle id="131" route="route_1" depart="637.0815341866495"/>
<vehicle id="132" route="route_1" depart="641.1701085587405"/>
<vehicle id="133" route="route_0" depart="648.5475448919651"/>
<vehicle id="134" route="route_0" depart="655.0761202984992"/>
<vehicle id="135" route="route_0" depart="659.2413043534291"/>
<vehicle id="136" route="route_1" depart="659.5924642610526"/>
<vehicle id="137" route="route_0" depart="661.4337982256295"/>
<vehicle id="138" route="route_1" depart="669.1798565980175"/>
<vehicle id="139" route="route_1" depart="679.2769599044387"/>
<vehicle id="140" route="route_0" depart="683.2453566616539"/>
<vehicle id="141" route="route_0" depart="685.6536587742262"/>
<vehicle id="142" route="route_1" depart="689.8730509425126"/>
<vehicle id="143" route="route_1" depart="704.2901233966148"/>
<vehicle id="144" route="route_0" depart="715.9049530627894"/>
<vehicle id="145" route="route_0" depart="726.6907322471275"/>
<vehicle id="146" route="route_1" depart="732.2566064420778"/>
<vehicle id="147" route="route_1" depart="737.3847366122077"/>
<vehicle id="148" route="route_1" depart="741.5967526218408"/>
<vehicle id="149" route="route_0" depart="745.6254482317772"/>
<vehicle id="150" route="route_1" depart="765.6631892359661"/>
<vehicle id="151" route="route_1" depart="769.5715356649233"/>
<vehicle id="152" route="route_0" depart="780.9851208281849"/>
<vehicle id="153" route="route_1" depart="804.2421093191969"/>
<vehicle id="154" route="route_1" depart="804.745151082458"/>
<vehicle id="155" route="route_1" depart="808.9243512364944"/>
<vehicle id="156" route="route_1" depart="817.2131795853652"/>
<vehicle id="157" route="route_1" depart="836.0361123165534"/>
<vehicle id="158" route="route_1" depart="841.1275804395285"/>
<vehicle id="159" route="route_0" depart="843.4147123237284"/>
<vehicle id="160" route="route_1" depart="851.206157520196"/>
<vehicle id="161" route="route_0" depart="860.008083435611"/>
<vehicle id="162" route="route_1" depart="862.678842906228"/>
<vehicle id="163" route="route_1" depart="866.7399987577581"/>
<vehicle id="164" route="route_1" depart="871.898456811635"/>
<vehicle id="165" route="route_1" depart="873.4724718268204"/>
<vehicle id="166" route="route_1" depart="878.5671462638946"/>
<vehicle id="167" route="route_0" depart="880.650414795229"/>
<vehicle id="168" route="route_0" depart="888.2294603609676"/>
<vehicle id="169" route="route_0" depart="890.124874382617"/>
<vehicle id="170" route="route_1" depart="892.9073255367595"/>
<vehicle id="171" route="route_0" depart="894.8296914958299"/>
<vehicle id="172" route="route_0" depart="896.5847740294709"/>
<vehicle id="173" route="route_0" depart="899.1368058566169"/>
<vehicle id="174" route="route_0" depart="899.408284057457"/>
<vehicle id="175" route="route_0" depart="907.7657642646836"/>
<vehicle id="176" route="route_0" depart="908.266628827514"/>
<vehicle id="177" route="route_1" depart="909.9915660183012"/>
<vehicle id="178" route="route_1" depart="910.51643520636"/>
<vehicle id="179" route="route_0" depart="912.2101925105019"/>
<vehicle id="180" route="route_1" depart="915.3559525219788"/>
<vehicle id="181" route="route_0" depart="923.0856070895352"/>
<vehicle id="182" route="route_0" depart="923.7944206341724"/>
<vehicle id="183" route="route_1" depart="924.5107137410615"/>
<vehicle id="184" route="route_0" depart="926.9477364082221"/>
<vehicle id="185" route="route_1" depart="929.2819642454426"/>
<vehicle id="186" route="route_1" depart="934.082974696791"/>
<vehicle id="187" route="route_0" depart="937.912091072435"/>
<vehicle id="188" route="route_0" depart="946.6595876145245"/>
<vehicle id="189" route="route_1" depart="947.2859383476963"/>
<vehicle id="190" route="route_0" depart="947.7000069382511"/>
<vehicle id="191" route="route_1" depart="954.0179671284048"/>
<vehicle id="192" route="route_1" depart="957.3654008292713"/>
<vehicle id="193" route="route_0" depart="962.4704563460759"/>
<vehicle id="194" route="route_0" depart="962.8744989317311"/>
<vehicle id="195" route="route_0" depart="962.9427583021777"/>
<vehicle id="196" route="route_0" depart="971.1665319461353"/>
<vehicle id="197" route="route_0" depart="984.2992239429335"/>
<vehicle id="198" route="route_1" depart="986.6515939364318"/>
<vehicle id="199" route="route_0" depart="993.7333033264015"/>
</routes>