<?xml version="1.0" encoding="UTF-8"?>
<routes xmlns:xsi="http://www.w3.org/2001/XMLSchema-instance" xsi:noNamespaceSchemaLocation="http://sumo.dlr.de/xsd/routes_file.xsd">
    <!-- Define routes -->
    <route id="route_0" edges="E3 -E4"/>
    <route id="route_1" edges="E3 -E6"/>
    <route id="route_2" edges="E4 -E5"/>
    <route id="route_3" edges="E4 -E3"/>
    <route id="route_4" edges="E5 -E3"/>
    <route id="route_5" edges="E5 -E6"/>
    <route id="route_6" edges="E6 -E4"/>
    <route id="route_7" edges="E6 -E5"/>
    

    <!-- Define vehicles that use the routes -->
    <vehicle id="0" route="route_0" depart="5.292646147217887"/>
    <vehicle id="1" route="route_1" depart="11.967028574717709"/>
    <vehicle id="2" route="route_2" depart="22.51872467290138"/>
    <vehicle id="3" route="route_3" depart="38.724178121774244"/>
    <vehicle id="4" route="route_4" depart="41.854467927684624"/>
    <vehicle id="5" route="route_5" depart="47.4716046588558"/>
    <vehicle id="6" route="route_6" depart="60.01244477553712"/>
    <vehicle id="7" route="route_7" depart="75.11037650933497"/>
</routes>