<?xml version="1.0" encoding="UTF-8"?>

<!-- generated on 2025-03-10 21:20:58 by Eclipse SUMO netedit Version 1.21.0
<neteditConfiguration xmlns:xsi="http://www.w3.org/2001/XMLSchema-instance" xsi:noNamespaceSchemaLocation="http://sumo.dlr.de/xsd/neteditConfiguration.xsd">

    <input>
        <sumo-net-file value="/home/tom/Code/Git/Third-Year-Project/src/networks/1Lane_CrossRoads/1Lane_CrossRoads.net.xml"/>
    </input>

    <output>
        <output-file value="/home/tom/Code/Git/Third-Year-Project/src/networks/1Lane_CrossRoads/1Lane_CrossRoads.net.xml"/>
    </output>

    <processing>
        <offset.disable-normalization value="true"/>
    </processing>

    <junctions>
        <no-turnarounds value="true"/>
    </junctions>

    <netedit>
        <new-network value="false"/>
    </netedit>

</neteditConfiguration>
-->

<net version="1.20" junctionCornerDetail="5" limitTurnSpeed="5.50" xmlns:xsi="http://www.w3.org/2001/XMLSchema-instance" xsi:noNamespaceSchemaLocation="http://sumo.dlr.de/xsd/net_file.xsd">

    <location netOffset="0.00,0.00" convBoundary="-100.00,-100.00,100.00,100.00" origBoundary="10000000000.00,10000000000.00,-10000000000.00,-10000000000.00" projParameter="!"/>

    <edge id=":J7_0" function="internal">
        <lane id=":J7_0_0" index="0" speed="6.51" length="9.03" shape="-1.60,7.20 -1.95,4.75 -3.00,3.00 -4.75,1.95 -7.20,1.60"/>
    </edge>
    <edge id=":J7_1" function="internal">
        <lane id=":J7_1_0" index="0" speed="13.89" length="14.40" shape="-1.60,7.20 -1.60,-7.20"/>
    </edge>
    <edge id=":J7_2" function="internal">
        <lane id=":J7_2_0" index="0" speed="6.51" length="9.03" shape="7.20,1.60 4.75,1.95 3.00,3.00 1.95,4.75 1.60,7.20"/>
    </edge>
    <edge id=":J7_3" function="internal">
        <lane id=":J7_3_0" index="0" speed="13.89" length="14.40" shape="7.20,1.60 -7.20,1.60"/>
    </edge>
    <edge id=":J7_4" function="internal">
        <lane id=":J7_4_0" index="0" speed="6.51" length="9.03" shape="1.60,-7.20 1.95,-4.75 3.00,-3.00 4.75,-1.95 7.20,-1.60"/>
    </edge>
    <edge id=":J7_5" function="internal">
        <lane id=":J7_5_0" index="0" speed="13.89" length="14.40" shape="1.60,-7.20 1.60,7.20"/>
    </edge>
    <edge id=":J7_6" function="internal">
        <lane id=":J7_6_0" index="0" speed="6.51" length="9.03" shape="-7.20,-1.60 -4.75,-1.95 -3.00,-3.00 -1.95,-4.75 -1.60,-7.20"/>
    </edge>
    <edge id=":J7_7" function="internal">
        <lane id=":J7_7_0" index="0" speed="13.89" length="14.40" shape="-7.20,-1.60 7.20,-1.60"/>
    </edge>

    <edge id="-E3" from="J7" to="J6" priority="-1">
        <lane id="-E3_0" index="0" speed="13.89" length="92.80" shape="1.60,7.20 1.60,100.00"/>
    </edge>
    <edge id="-E4" from="J7" to="J8" priority="-1">
        <lane id="-E4_0" index="0" speed="13.89" length="92.80" shape="-1.60,-7.20 -1.60,-100.00"/>
    </edge>
    <edge id="-E5" from="J7" to="J9" priority="-1">
        <lane id="-E5_0" index="0" speed="13.89" length="92.80" shape="7.20,-1.60 100.00,-1.60"/>
    </edge>
    <edge id="-E6" from="J7" to="J10" priority="-1">
        <lane id="-E6_0" index="0" speed="13.89" length="92.80" shape="-7.20,1.60 -100.00,1.60"/>
    </edge>
    <edge id="E3" from="J6" to="J7" priority="-1">
        <lane id="E3_0" index="0" speed="13.89" length="92.80" shape="-1.60,100.00 -1.60,7.20"/>
    </edge>
    <edge id="E4" from="J8" to="J7" priority="-1">
        <lane id="E4_0" index="0" speed="13.89" length="92.80" shape="1.60,-100.00 1.60,-7.20"/>
    </edge>
    <edge id="E5" from="J9" to="J7" priority="-1">
        <lane id="E5_0" index="0" speed="13.89" length="92.80" shape="100.00,1.60 7.20,1.60"/>
    </edge>
    <edge id="E6" from="J10" to="J7" priority="-1">
        <lane id="E6_0" index="0" speed="13.89" length="92.80" shape="-100.00,-1.60 -7.20,-1.60"/>
    </edge>

    <tlLogic id="J7" type="static" programID="0" offset="0">
        <phase duration="42" state="GGrrGGrr"/>
        <phase duration="3"  state="yyrryyrr"/>
        <phase duration="42" state="rrGGrrGG"/>
        <phase duration="3"  state="rryyrryy"/>
    </tlLogic>

    <junction id="J10" type="dead_end" x="-100.00" y="0.00" incLanes="-E6_0" intLanes="" shape="-100.00,0.00 -100.00,3.20 -100.00,0.00"/>
    <junction id="J6" type="dead_end" x="0.00" y="100.00" incLanes="-E3_0" intLanes="" shape="0.00,100.00 3.20,100.00 0.00,100.00"/>
    <junction id="J7" type="traffic_light" x="0.00" y="0.00" incLanes="E3_0 E5_0 E4_0 E6_0" intLanes=":J7_0_0 :J7_1_0 :J7_2_0 :J7_3_0 :J7_4_0 :J7_5_0 :J7_6_0 :J7_7_0" shape="-3.20,7.20 3.20,7.20 3.64,4.98 4.20,4.20 4.98,3.64 5.98,3.31 7.20,3.20 7.20,-3.20 4.98,-3.64 4.20,-4.20 3.64,-4.98 3.31,-5.98 3.20,-7.20 -3.20,-7.20 -3.64,-4.98 -4.20,-4.20 -4.98,-3.64 -5.98,-3.31 -7.20,-3.20 -7.20,3.20 -4.98,3.64 -4.20,4.20 -3.64,4.98 -3.31,5.98">
        <request index="0" response="00000000" foes="00001000" cont="0"/>
        <request index="1" response="00000000" foes="11001000" cont="0"/>
        <request index="2" response="00100000" foes="00100000" cont="0"/>
        <request index="3" response="00100011" foes="00100011" cont="0"/>
        <request index="4" response="00000000" foes="10000000" cont="0"/>
        <request index="5" response="00000000" foes="10001100" cont="0"/>
        <request index="6" response="00000010" foes="00000010" cont="0"/>
        <request index="7" response="00110010" foes="00110010" cont="0"/>
    </junction>
    <junction id="J8" type="dead_end" x="0.00" y="-100.00" incLanes="-E4_0" intLanes="" shape="0.00,-100.00 -3.20,-100.00 0.00,-100.00"/>
    <junction id="J9" type="dead_end" x="100.00" y="0.00" incLanes="-E5_0" intLanes="" shape="100.00,0.00 100.00,-3.20 100.00,0.00"/>

    <connection from="E3" to="-E6" fromLane="0" toLane="0" via=":J7_0_0" tl="J7" linkIndex="0" dir="r" state="O"/>
    <connection from="E3" to="-E4" fromLane="0" toLane="0" via=":J7_1_0" tl="J7" linkIndex="1" dir="s" state="O"/>
    <connection from="E4" to="-E5" fromLane="0" toLane="0" via=":J7_4_0" tl="J7" linkIndex="4" dir="r" state="O"/>
    <connection from="E4" to="-E3" fromLane="0" toLane="0" via=":J7_5_0" tl="J7" linkIndex="5" dir="s" state="O"/>
    <connection from="E5" to="-E3" fromLane="0" toLane="0" via=":J7_2_0" tl="J7" linkIndex="2" dir="r" state="o"/>
    <connection from="E5" to="-E6" fromLane="0" toLane="0" via=":J7_3_0" tl="J7" linkIndex="3" dir="s" state="o"/>
    <connection from="E6" to="-E4" fromLane="0" toLane="0" via=":J7_6_0" tl="J7" linkIndex="6" dir="r" state="o"/>
    <connection from="E6" to="-E5" fromLane="0" toLane="0" via=":J7_7_0" tl="J7" linkIndex="7" dir="s" state="o"/>

    <connection from=":J7_0" to="-E6" fromLane="0" toLane="0" dir="r" state="M"/>
    <connection from=":J7_1" to="-E4" fromLane="0" toLane="0" dir="s" state="M"/>
    <connection from=":J7_2" to="-E3" fromLane="0" toLane="0" dir="r" state="M"/>
    <connection from=":J7_3" to="-E6" fromLane="0" toLane="0" dir="s" state="M"/>
    <connection from=":J7_4" to="-E5" fromLane="0" toLane="0" dir="r" state="M"/>
    <connection from=":J7_5" to="-E3" fromLane="0" toLane="0" dir="s" state="M"/>
    <connection from=":J7_6" to="-E4" fromLane="0" toLane="0" dir="r" state="M"/>
    <connection from=":J7_7" to="-E5" fromLane="0" toLane="0" dir="s" state="M"/>

</net>
