<?xml version="1.0" encoding="UTF-8"?>
<routes xmlns:xsi="http://www.w3.org/2001/XMLSchema-instance" xsi:noNamespaceSchemaLocation="http://sumo.dlr.de/xsd/routes_file.xsd">
    <!-- Define routes -->
    <route id="route_0" edges="E5 E1"/>
    <route id="route_1" edges="E6 E1"/>

    <!-- Define vehicles that use the routes -->
    <vehicle id="0" route="route_0" depart="0"/>
    <vehicle id="1" route="route_1" depart="10"/>
    <vehicle id="2" route="route_0" depart="20"/>
    <vehicle id="3" route="route_1" depart="30"/>
    <vehicle id="4" route="route_0" depart="40"/>
    <vehicle id="5" route="route_0" depart="50"/>
    <vehicle id="6" route="route_0" depart="60"/>
    <vehicle id="7" route="route_0" depart="70"/>
    <vehicle id="8" route="route_1" depart="80"/>
    <vehicle id="9" route="route_1" depart="90"/>
    <vehicle id="10" route="route_1" depart="100"/>
    <vehicle id="11" route="route_1" depart="110"/>

    <vehicle id="12" route="route_0" depart="170"/>
    <vehicle id="13" route="route_1" depart="170"/>
    <vehicle id="14" route="route_0" depart="171"/>
    <vehicle id="15" route="route_1" depart="171"/>
    <vehicle id="16" route="route_0" depart="172"/>
    <vehicle id="17" route="route_1" depart="172"/>
    <vehicle id="18" route="route_0" depart="173"/>
    <vehicle id="19" route="route_1" depart="173"/>
    <vehicle id="20" route="route_0" depart="174"/>
    <vehicle id="21" route="route_1" depart="174"/>
    <vehicle id="22" route="route_0" depart="175"/>
    <vehicle id="23" route="route_1" depart="175"/>
</routes>