<?xml version="1.0" encoding="UTF-8"?>
<routes xmlns:xsi="http://www.w3.org/2001/XMLSchema-instance" xsi:noNamespaceSchemaLocation="http://sumo.dlr.de/xsd/routes_file.xsd">
    <!-- Define routes -->
    <route id="route_0" edges="E5 E1"/>
    <route id="route_1" edges="E6 E1"/>

    <!-- Define vehicles that use the routes -->
<vehicle id="0" route="route_1" depart="19.042647706769166"/>
<vehicle id="1" route="route_0" depart="19.425494587338775"/>
<vehicle id="2" route="route_1" depart="29.695905677903507"/>
<vehicle id="3" route="route_1" depart="33.46284792649909"/>
<vehicle id="4" route="route_0" depart="38.934933519428256"/>
<vehicle id="5" route="route_1" depart="41.063830671963956"/>
<vehicle id="6" route="route_1" depart="48.20349383876418"/>
<vehicle id="7" route="route_0" depart="51.91973372271802"/>
<vehicle id="8" route="route_1" depart="58.68264242384852"/>
<vehicle id="9" route="route_0" depart="60.61097191335752"/>
<vehicle id="10" route="route_1" depart="62.90041328619478"/>
<vehicle id="11" route="route_1" depart="65.59406940965756"/>
<vehicle id="12" route="route_0" depart="85.5579651885247"/>
<vehicle id="13" route="route_1" depart="88.6367471223449"/>
<vehicle id="14" route="route_1" depart="90.88137962850388"/>
<vehicle id="15" route="route_0" depart="93.43055401349626"/>
<vehicle id="16" route="route_0" depart="102.45536106211031"/>
<vehicle id="17" route="route_0" depart="105.0893027805345"/>
<vehicle id="18" route="route_1" depart="112.50457881427509"/>
<vehicle id="19" route="route_1" depart="135.0006861284802"/>
<vehicle id="20" route="route_1" depart="139.96827527617967"/>
<vehicle id="21" route="route_0" depart="166.72006258010384"/>
<vehicle id="22" route="route_1" depart="169.27764115172982"/>
<vehicle id="23" route="route_0" depart="171.46116557274811"/>
<vehicle id="24" route="route_1" depart="175.5383179709442"/>
<vehicle id="25" route="route_0" depart="185.0153683059634"/>
<vehicle id="26" route="route_1" depart="190.1029781549261"/>
<vehicle id="27" route="route_1" depart="191.89166730874038"/>
<vehicle id="28" route="route_1" depart="197.69846214435918"/>
<vehicle id="29" route="route_1" depart="198.42199209854056"/>
<vehicle id="30" route="route_1" depart="199.11110667371074"/>
<vehicle id="31" route="route_1" depart="204.69534814628102"/>
<vehicle id="32" route="route_1" depart="210.09493260378005"/>
<vehicle id="33" route="route_0" depart="212.42138022198841"/>
<vehicle id="34" route="route_1" depart="220.26573342699766"/>
<vehicle id="35" route="route_1" depart="228.87261048584543"/>
<vehicle id="36" route="route_0" depart="232.34797511493414"/>
<vehicle id="37" route="route_1" depart="244.56997544826794"/>
<vehicle id="38" route="route_1" depart="245.89474100528065"/>
<vehicle id="39" route="route_1" depart="248.26827691855118"/>
</routes>