<?xml version="1.0" encoding="UTF-8"?>
<routes xmlns:xsi="http://www.w3.org/2001/XMLSchema-instance" xsi:noNamespaceSchemaLocation="http://sumo.dlr.de/xsd/routes_file.xsd">
    <!-- Define routes -->
    <route id="route_0" edges="E5 E1"/>
    <route id="route_1" edges="E6 E1"/>

    <!-- Define vehicles that use the routes -->
<vehicle id="0" route="route_1" depart="5.166527509166352"/>
<vehicle id="1" route="route_1" depart="6.544443759899682"/>
<vehicle id="2" route="route_0" depart="9.2654415000199"/>
<vehicle id="3" route="route_0" depart="12.099182533229364"/>
<vehicle id="4" route="route_0" depart="15.728750497530559"/>
<vehicle id="5" route="route_1" depart="46.707265597063454"/>
<vehicle id="6" route="route_0" depart="53.49509274328018"/>
<vehicle id="7" route="route_1" depart="56.750004145254415"/>
<vehicle id="8" route="route_1" depart="59.74479207648173"/>
<vehicle id="9" route="route_1" depart="65.01232758339707"/>
<vehicle id="10" route="route_0" depart="82.21865991288641"/>
<vehicle id="11" route="route_1" depart="82.67593893469325"/>
<vehicle id="12" route="route_0" depart="92.88660168616248"/>
<vehicle id="13" route="route_0" depart="94.1195764473935"/>
<vehicle id="14" route="route_1" depart="97.60702463013013"/>
<vehicle id="15" route="route_0" depart="107.38760435941997"/>
<vehicle id="16" route="route_1" depart="108.99814369098345"/>
<vehicle id="17" route="route_1" depart="110.24988615176525"/>
<vehicle id="18" route="route_1" depart="114.544446629055"/>
<vehicle id="19" route="route_1" depart="115.30824889979047"/>
<vehicle id="20" route="route_1" depart="128.01145238194337"/>
<vehicle id="21" route="route_1" depart="135.17919135542076"/>
<vehicle id="22" route="route_0" depart="152.27967789506363"/>
<vehicle id="23" route="route_1" depart="153.2720002144719"/>
<vehicle id="24" route="route_0" depart="165.2409294064295"/>
<vehicle id="25" route="route_1" depart="178.77302731991992"/>
<vehicle id="26" route="route_0" depart="180.10525523945637"/>
<vehicle id="27" route="route_1" depart="182.27794632800232"/>
<vehicle id="28" route="route_0" depart="186.6723439783945"/>
<vehicle id="29" route="route_1" depart="199.08152521156453"/>
<vehicle id="30" route="route_1" depart="202.35967731368928"/>
<vehicle id="31" route="route_0" depart="202.8224608287339"/>
<vehicle id="32" route="route_0" depart="209.08984242927212"/>
<vehicle id="33" route="route_1" depart="209.96487107435425"/>
<vehicle id="34" route="route_1" depart="211.72746307099487"/>
<vehicle id="35" route="route_1" depart="215.21815902424024"/>
<vehicle id="36" route="route_1" depart="226.52557076192116"/>
<vehicle id="37" route="route_1" depart="235.55962779196022"/>
<vehicle id="38" route="route_1" depart="237.1330161657949"/>
<vehicle id="39" route="route_0" depart="239.45201542397095"/>
</routes>