<?xml version="1.0" encoding="UTF-8"?>
<routes xmlns:xsi="http://www.w3.org/2001/XMLSchema-instance" xsi:noNamespaceSchemaLocation="http://sumo.dlr.de/xsd/routes_file.xsd">
    <!-- Define routes -->
    <route id="route_0" edges="E5 E1"/>
    <route id="route_1" edges="E6 E1"/>

    <!-- Define vehicles that use the routes -->
<vehicle id="0" route="route_0" depart="0.4914058666691479"/>
<vehicle id="1" route="route_1" depart="0.7719636021095377"/>
<vehicle id="2" route="route_0" depart="0.9857978149662827"/>
<vehicle id="3" route="route_1" depart="1.9401648879985745"/>
<vehicle id="4" route="route_1" depart="2.9359290121915627"/>
<vehicle id="5" route="route_1" depart="3.585467079689031"/>
<vehicle id="6" route="route_0" depart="4.655410168840013"/>
<vehicle id="7" route="route_1" depart="5.457512495667737"/>
<vehicle id="8" route="route_0" depart="5.577324875060219"/>
<vehicle id="9" route="route_1" depart="5.668200439055515"/>
<vehicle id="10" route="route_0" depart="5.714954956140006"/>
<vehicle id="11" route="route_1" depart="6.368099200378252"/>
<vehicle id="12" route="route_0" depart="7.698066500844614"/>
<vehicle id="13" route="route_1" depart="7.887991675368566"/>
<vehicle id="14" route="route_1" depart="8.28488217080342"/>
<vehicle id="15" route="route_1" depart="9.473881643876114"/>
<vehicle id="16" route="route_1" depart="10.536696643531096"/>
<vehicle id="17" route="route_1" depart="11.205045597012763"/>
<vehicle id="18" route="route_1" depart="11.37837362767673"/>
<vehicle id="19" route="route_1" depart="11.392153803680083"/>
<vehicle id="20" route="route_0" depart="12.764438184501037"/>
<vehicle id="21" route="route_0" depart="12.869321333476325"/>
<vehicle id="22" route="route_0" depart="15.354306661803408"/>
<vehicle id="23" route="route_1" depart="15.8092785257004"/>
<vehicle id="24" route="route_0" depart="18.03529712391888"/>
<vehicle id="25" route="route_1" depart="18.24364214794212"/>
<vehicle id="26" route="route_1" depart="18.844086145570504"/>
<vehicle id="27" route="route_1" depart="19.267502887443932"/>
<vehicle id="28" route="route_1" depart="19.84642918558819"/>
<vehicle id="29" route="route_0" depart="20.22892497502069"/>
<vehicle id="30" route="route_0" depart="20.31794287231554"/>
<vehicle id="31" route="route_1" depart="20.655069162270046"/>
<vehicle id="32" route="route_1" depart="20.90989369453452"/>
<vehicle id="33" route="route_1" depart="21.2402477560239"/>
<vehicle id="34" route="route_1" depart="23.52105485594327"/>
<vehicle id="35" route="route_1" depart="23.868679863168808"/>
<vehicle id="36" route="route_0" depart="26.433118874313887"/>
<vehicle id="37" route="route_1" depart="26.752589915212997"/>
<vehicle id="38" route="route_0" depart="28.562062541848853"/>
<vehicle id="39" route="route_1" depart="28.679431316409698"/>
<vehicle id="40" route="route_0" depart="33.58474775823945"/>
<vehicle id="41" route="route_0" depart="35.742972598030654"/>
<vehicle id="42" route="route_0" depart="36.17428341399802"/>
<vehicle id="43" route="route_1" depart="37.00575490810647"/>
<vehicle id="44" route="route_1" depart="37.12226532716478"/>
<vehicle id="45" route="route_0" depart="37.41063207791958"/>
<vehicle id="46" route="route_1" depart="40.49058412695605"/>
<vehicle id="47" route="route_1" depart="40.952757632528716"/>
<vehicle id="48" route="route_1" depart="41.326384320247314"/>
<vehicle id="49" route="route_1" depart="41.44422957173537"/>
<vehicle id="50" route="route_0" depart="42.211522009889634"/>
<vehicle id="51" route="route_0" depart="42.330566677893856"/>
<vehicle id="52" route="route_1" depart="43.25606216344294"/>
<vehicle id="53" route="route_0" depart="44.39330250524348"/>
<vehicle id="54" route="route_0" depart="44.61612622799289"/>
<vehicle id="55" route="route_1" depart="45.35644588371004"/>
<vehicle id="56" route="route_1" depart="45.64960629942188"/>
<vehicle id="57" route="route_0" depart="46.48537377433025"/>
<vehicle id="58" route="route_0" depart="47.19867611987468"/>
<vehicle id="59" route="route_0" depart="53.778769245546165"/>
<vehicle id="60" route="route_0" depart="55.09658674534978"/>
<vehicle id="61" route="route_1" depart="56.4708219814532"/>
<vehicle id="62" route="route_1" depart="57.216169029074806"/>
<vehicle id="63" route="route_0" depart="57.91619045998356"/>
<vehicle id="64" route="route_0" depart="59.48604763299878"/>
<vehicle id="65" route="route_1" depart="60.11794424788973"/>
<vehicle id="66" route="route_1" depart="60.941506895272965"/>
<vehicle id="67" route="route_1" depart="61.383309287038415"/>
<vehicle id="68" route="route_1" depart="62.12161542437777"/>
<vehicle id="69" route="route_1" depart="62.771724378365334"/>
<vehicle id="70" route="route_0" depart="62.93206665817177"/>
<vehicle id="71" route="route_1" depart="65.74463389118638"/>
<vehicle id="72" route="route_0" depart="66.43296422571794"/>
<vehicle id="73" route="route_1" depart="66.45156776128559"/>
<vehicle id="74" route="route_1" depart="66.99766245383401"/>
<vehicle id="75" route="route_1" depart="67.9887597378053"/>
<vehicle id="76" route="route_0" depart="68.45992896114774"/>
<vehicle id="77" route="route_1" depart="69.4278313462917"/>
<vehicle id="78" route="route_0" depart="69.62320727379257"/>
<vehicle id="79" route="route_1" depart="69.63980868793283"/>
<vehicle id="80" route="route_0" depart="72.60111818120598"/>
<vehicle id="81" route="route_0" depart="72.72403371915847"/>
<vehicle id="82" route="route_1" depart="74.68493798464208"/>
<vehicle id="83" route="route_1" depart="74.92795493304425"/>
<vehicle id="84" route="route_1" depart="80.7217373948343"/>
<vehicle id="85" route="route_1" depart="82.10914786713046"/>
<vehicle id="86" route="route_0" depart="82.9217631269049"/>
<vehicle id="87" route="route_1" depart="83.15651599663907"/>
<vehicle id="88" route="route_1" depart="83.18666055718387"/>
<vehicle id="89" route="route_0" depart="83.28651623095116"/>
<vehicle id="90" route="route_1" depart="83.65737771996581"/>
<vehicle id="91" route="route_0" depart="83.79847083344613"/>
<vehicle id="92" route="route_1" depart="88.05499916488118"/>
<vehicle id="93" route="route_0" depart="90.20027805634831"/>
<vehicle id="94" route="route_0" depart="90.75582936379656"/>
<vehicle id="95" route="route_0" depart="91.027692459062"/>
<vehicle id="96" route="route_0" depart="92.19771549223165"/>
<vehicle id="97" route="route_1" depart="95.1208508964705"/>
<vehicle id="98" route="route_1" depart="95.91888047941181"/>
<vehicle id="99" route="route_1" depart="96.2094479850394"/>
</routes>