<?xml version="1.0" encoding="UTF-8"?>
<routes xmlns:xsi="http://www.w3.org/2001/XMLSchema-instance" xsi:noNamespaceSchemaLocation="http://sumo.dlr.de/xsd/routes_file.xsd">
    <!-- Define routes -->
    <route id="route_0" edges="E5 E1"/>
    <route id="route_1" edges="E6 E1"/>

    <!-- Define vehicles that use the routes -->
<vehicle id="0" route="route_1" depart="8.385990834434532"/>
<vehicle id="1" route="route_0" depart="9.068993577001184"/>
<vehicle id="2" route="route_1" depart="13.24935769269231"/>
<vehicle id="3" route="route_1" depart="13.289119116605052"/>
<vehicle id="4" route="route_0" depart="19.555113044918393"/>
<vehicle id="5" route="route_1" depart="22.55791335199655"/>
<vehicle id="6" route="route_1" depart="25.09447585093667"/>
<vehicle id="7" route="route_0" depart="26.962678736000377"/>
<vehicle id="8" route="route_1" depart="30.781527207602"/>
<vehicle id="9" route="route_0" depart="33.130004409030576"/>
<vehicle id="10" route="route_0" depart="35.00069267931034"/>
<vehicle id="11" route="route_0" depart="36.17213521608905"/>
<vehicle id="12" route="route_0" depart="37.22292040761125"/>
<vehicle id="13" route="route_1" depart="38.64951727441527"/>
<vehicle id="14" route="route_1" depart="39.72631589754386"/>
<vehicle id="15" route="route_1" depart="47.888566540660335"/>
<vehicle id="16" route="route_0" depart="51.41403519305403"/>
<vehicle id="17" route="route_0" depart="53.11459977322711"/>
<vehicle id="18" route="route_0" depart="54.15465303401393"/>
<vehicle id="19" route="route_0" depart="62.64223472940213"/>
<vehicle id="20" route="route_1" depart="65.14126680687346"/>
<vehicle id="21" route="route_1" depart="68.40766055815298"/>
<vehicle id="22" route="route_0" depart="70.44591571267925"/>
<vehicle id="23" route="route_0" depart="74.30975211554227"/>
<vehicle id="24" route="route_1" depart="75.59079232984153"/>
<vehicle id="25" route="route_1" depart="76.40985153201017"/>
<vehicle id="26" route="route_0" depart="77.02248295770985"/>
<vehicle id="27" route="route_0" depart="78.76756719070788"/>
<vehicle id="28" route="route_1" depart="82.37076277105172"/>
<vehicle id="29" route="route_1" depart="83.32524027085235"/>
<vehicle id="30" route="route_1" depart="87.86332791073876"/>
<vehicle id="31" route="route_0" depart="89.43169435376521"/>
<vehicle id="32" route="route_0" depart="89.60298680440201"/>
<vehicle id="33" route="route_1" depart="90.0522940523882"/>
<vehicle id="34" route="route_0" depart="90.34808231480457"/>
<vehicle id="35" route="route_1" depart="91.3630224381366"/>
<vehicle id="36" route="route_1" depart="94.01106760726749"/>
<vehicle id="37" route="route_1" depart="94.10629822373772"/>
<vehicle id="38" route="route_0" depart="98.0109819690671"/>
<vehicle id="39" route="route_1" depart="99.8590711350903"/>
</routes>