<?xml version="1.0" encoding="UTF-8"?>

<!-- generated on 2025-03-19 05:04:14 by Eclipse SUMO netedit Version 1.21.0
<neteditConfiguration xmlns:xsi="http://www.w3.org/2001/XMLSchema-instance" xsi:noNamespaceSchemaLocation="http://sumo.dlr.de/xsd/neteditConfiguration.xsd">

    <input>
        <sumocfg-file value="/home/tom/Code/AAAAAAA/3/env.sumocfg"/>
        <additional-files value="/home/tom/Code/AAAAAAA/3/env.add.xml"/>
        <route-files value="/home/tom/Code/AAAAAAA/3/env.rou.xml"/>
        <sumo-net-file value="/home/tom/Code/AAAAAAA/3/env.net.xml"/>
    </input>

    <output>
        <output-file value="/home/tom/Code/AAAAAAA/3/env.net.xml"/>
    </output>

    <processing>
        <geometry.min-radius.fix.railways value="false"/>
        <geometry.max-grade.fix value="false"/>
        <offset.disable-normalization value="true"/>
        <lefthand value="0"/>
    </processing>

    <junctions>
        <no-turnarounds value="true"/>
        <junctions.corner-detail value="5"/>
        <junctions.limit-turn-speed value="5.50"/>
        <rectangular-lane-cut value="0"/>
    </junctions>

    <pedestrian>
        <walkingareas value="0"/>
    </pedestrian>

</neteditConfiguration>
-->

<net version="1.20" junctionCornerDetail="5" limitTurnSpeed="5.50" xmlns:xsi="http://www.w3.org/2001/XMLSchema-instance" xsi:noNamespaceSchemaLocation="http://sumo.dlr.de/xsd/net_file.xsd">

    <location netOffset="0.00,0.00" convBoundary="-200.00,-200.00,200.00,200.00" origBoundary="-10000000000.00,-10000000000.00,10000000000.00,10000000000.00" projParameter="!"/>

    <edge id=":TCS_0" function="internal">
        <lane id=":TCS_0_0" index="0" speed="6.51" length="9.03" shape="-8.00,13.60 -8.35,11.15 -9.40,9.40 -11.15,8.35 -13.60,8.00"/>
        <lane id=":TCS_0_1" index="1" speed="8.00" length="14.19" shape="-4.80,13.60 -5.35,9.75 -7.00,7.00 -9.75,5.35 -13.60,4.80"/>
    </edge>
    <edge id=":TCS_2" function="internal">
        <lane id=":TCS_2_0" index="0" speed="13.89" length="27.20" shape="-4.80,13.60 -4.80,-13.60"/>
        <lane id=":TCS_2_1" index="1" speed="13.89" length="27.20" shape="-1.60,13.60 -1.60,-13.60"/>
    </edge>
    <edge id=":TCS_4" function="internal">
        <lane id=":TCS_4_0" index="0" speed="6.51" length="9.03" shape="13.60,8.00 11.15,8.35 9.40,9.40 8.35,11.15 8.00,13.60"/>
        <lane id=":TCS_4_1" index="1" speed="8.00" length="14.19" shape="13.60,4.80 9.75,5.35 7.00,7.00 5.35,9.75 4.80,13.60"/>
    </edge>
    <edge id=":TCS_6" function="internal">
        <lane id=":TCS_6_0" index="0" speed="13.89" length="27.20" shape="13.60,4.80 -13.60,4.80"/>
        <lane id=":TCS_6_1" index="1" speed="13.89" length="27.20" shape="13.60,1.60 -13.60,1.60"/>
    </edge>
    <edge id=":TCS_8" function="internal">
        <lane id=":TCS_8_0" index="0" speed="6.51" length="9.03" shape="8.00,-13.60 8.35,-11.15 9.40,-9.40 11.15,-8.35 13.60,-8.00"/>
        <lane id=":TCS_8_1" index="1" speed="8.00" length="14.19" shape="4.80,-13.60 5.35,-9.75 7.00,-7.00 9.75,-5.35 13.60,-4.80"/>
    </edge>
    <edge id=":TCS_10" function="internal">
        <lane id=":TCS_10_0" index="0" speed="13.89" length="27.20" shape="4.80,-13.60 4.80,13.60"/>
        <lane id=":TCS_10_1" index="1" speed="13.89" length="27.20" shape="1.60,-13.60 1.60,13.60"/>
    </edge>
    <edge id=":TCS_12" function="internal">
        <lane id=":TCS_12_0" index="0" speed="6.51" length="9.03" shape="-13.60,-8.00 -11.15,-8.35 -9.40,-9.40 -8.35,-11.15 -8.00,-13.60"/>
        <lane id=":TCS_12_1" index="1" speed="8.00" length="14.19" shape="-13.60,-4.80 -9.75,-5.35 -7.00,-7.00 -5.35,-9.75 -4.80,-13.60"/>
    </edge>
    <edge id=":TCS_14" function="internal">
        <lane id=":TCS_14_0" index="0" speed="13.89" length="27.20" shape="-13.60,-4.80 13.60,-4.80"/>
        <lane id=":TCS_14_1" index="1" speed="13.89" length="27.20" shape="-13.60,-1.60 13.60,-1.60"/>
    </edge>

    <edge id="RoadEM" from="NodeE" to="TCS" priority="-1">
        <lane id="RoadEM_0" index="0" speed="13.89" length="186.40" shape="200.00,8.00 13.60,8.00"/>
        <lane id="RoadEM_1" index="1" speed="13.89" length="186.40" shape="200.00,4.80 13.60,4.80"/>
        <lane id="RoadEM_2" index="2" speed="13.89" length="186.40" shape="200.00,1.60 13.60,1.60"/>
    </edge>
    <edge id="RoadME" from="TCS" to="NodeW" priority="-1">
        <lane id="RoadME_0" index="0" speed="13.89" length="186.40" shape="-13.60,8.00 -200.00,8.00"/>
        <lane id="RoadME_1" index="1" speed="13.89" length="186.40" shape="-13.60,4.80 -200.00,4.80"/>
        <lane id="RoadME_2" index="2" speed="13.89" length="186.40" shape="-13.60,1.60 -200.00,1.60"/>
    </edge>
    <edge id="RoadMN" from="TCS" to="NodeN" priority="-1">
        <lane id="RoadMN_0" index="0" speed="13.89" length="186.40" shape="8.00,13.60 8.00,200.00"/>
        <lane id="RoadMN_1" index="1" speed="13.89" length="186.40" shape="4.80,13.60 4.80,200.00"/>
        <lane id="RoadMN_2" index="2" speed="13.89" length="186.40" shape="1.60,13.60 1.60,200.00"/>
    </edge>
    <edge id="RoadMS" from="TCS" to="NodeS" priority="-1">
        <lane id="RoadMS_0" index="0" speed="13.89" length="186.40" shape="-8.00,-13.60 -8.00,-200.00"/>
        <lane id="RoadMS_1" index="1" speed="13.89" length="186.40" shape="-4.80,-13.60 -4.80,-200.00"/>
        <lane id="RoadMS_2" index="2" speed="13.89" length="186.40" shape="-1.60,-13.60 -1.60,-200.00"/>
    </edge>
    <edge id="RoadMW" from="TCS" to="NodeE" priority="-1">
        <lane id="RoadMW_0" index="0" speed="13.89" length="186.40" shape="13.60,-8.00 200.00,-8.00"/>
        <lane id="RoadMW_1" index="1" speed="13.89" length="186.40" shape="13.60,-4.80 200.00,-4.80"/>
        <lane id="RoadMW_2" index="2" speed="13.89" length="186.40" shape="13.60,-1.60 200.00,-1.60"/>
    </edge>
    <edge id="RoadNM" from="NodeN" to="TCS" priority="-1">
        <lane id="RoadNM_0" index="0" speed="13.89" length="186.40" shape="-8.00,200.00 -8.00,13.60"/>
        <lane id="RoadNM_1" index="1" speed="13.89" length="186.40" shape="-4.80,200.00 -4.80,13.60"/>
        <lane id="RoadNM_2" index="2" speed="13.89" length="186.40" shape="-1.60,200.00 -1.60,13.60"/>
    </edge>
    <edge id="RoadSM" from="NodeS" to="TCS" priority="-1">
        <lane id="RoadSM_0" index="0" speed="13.89" length="186.40" shape="8.00,-200.00 8.00,-13.60"/>
        <lane id="RoadSM_1" index="1" speed="13.89" length="186.40" shape="4.80,-200.00 4.80,-13.60"/>
        <lane id="RoadSM_2" index="2" speed="13.89" length="186.40" shape="1.60,-200.00 1.60,-13.60"/>
    </edge>
    <edge id="RoadWM" from="NodeW" to="TCS" priority="-1">
        <lane id="RoadWM_0" index="0" speed="13.89" length="186.40" shape="-200.00,-8.00 -13.60,-8.00"/>
        <lane id="RoadWM_1" index="1" speed="13.89" length="186.40" shape="-200.00,-4.80 -13.60,-4.80"/>
        <lane id="RoadWM_2" index="2" speed="13.89" length="186.40" shape="-200.00,-1.60 -13.60,-1.60"/>
    </edge>

    <tlLogic id="TCS" type="static" programID="0" offset="0">
        <phase duration="42" state="GGGGrrrrGGGGrrrr"/>
        <phase duration="42" state="rrrrGGGGrrrrGGGG"/>
    </tlLogic>

    <junction id="NodeE" type="dead_end" x="200.00" y="0.00" incLanes="RoadMW_0 RoadMW_1 RoadMW_2" intLanes="" shape="200.00,0.00 200.00,-9.60 200.00,0.00"/>
    <junction id="NodeN" type="dead_end" x="0.00" y="200.00" incLanes="RoadMN_0 RoadMN_1 RoadMN_2" intLanes="" shape="0.00,200.00 9.60,200.00 0.00,200.00"/>
    <junction id="NodeS" type="dead_end" x="0.00" y="-200.00" incLanes="RoadMS_0 RoadMS_1 RoadMS_2" intLanes="" shape="0.00,-200.00 -9.60,-200.00 0.00,-200.00"/>
    <junction id="NodeW" type="dead_end" x="-200.00" y="0.00" incLanes="RoadME_0 RoadME_1 RoadME_2" intLanes="" shape="-200.00,0.00 -200.00,9.60 -200.00,0.00"/>
    <junction id="TCS" type="traffic_light" x="0.00" y="0.00" incLanes="RoadNM_0 RoadNM_1 RoadNM_2 RoadEM_0 RoadEM_1 RoadEM_2 RoadSM_0 RoadSM_1 RoadSM_2 RoadWM_0 RoadWM_1 RoadWM_2" intLanes=":TCS_0_0 :TCS_0_1 :TCS_2_0 :TCS_2_1 :TCS_4_0 :TCS_4_1 :TCS_6_0 :TCS_6_1 :TCS_8_0 :TCS_8_1 :TCS_10_0 :TCS_10_1 :TCS_12_0 :TCS_12_1 :TCS_14_0 :TCS_14_1" shape="-9.60,13.60 9.60,13.60 10.04,11.38 10.60,10.60 11.38,10.04 12.38,9.71 13.60,9.60 13.60,-9.60 11.38,-10.04 10.60,-10.60 10.04,-11.38 9.71,-12.38 9.60,-13.60 -9.60,-13.60 -10.04,-11.38 -10.60,-10.60 -11.38,-10.04 -12.38,-9.71 -13.60,-9.60 -13.60,9.60 -11.38,10.04 -10.60,10.60 -10.04,11.38 -9.71,12.38">
        <request index="0"  response="0000000000000000" foes="0000000011000000" cont="0"/>
        <request index="1"  response="0000000000000000" foes="0000000011000000" cont="0"/>
        <request index="2"  response="0000000000000000" foes="1111000011000000" cont="0"/>
        <request index="3"  response="0000000000000000" foes="1111000011000000" cont="0"/>
        <request index="4"  response="0000110000000000" foes="0000110000000000" cont="0"/>
        <request index="5"  response="0000110000000000" foes="0000110000000000" cont="0"/>
        <request index="6"  response="0000110000001111" foes="0000110000001111" cont="0"/>
        <request index="7"  response="0000110000001111" foes="0000110000001111" cont="0"/>
        <request index="8"  response="0000000000000000" foes="1100000000000000" cont="0"/>
        <request index="9"  response="0000000000000000" foes="1100000000000000" cont="0"/>
        <request index="10" response="0000000000000000" foes="1100000011110000" cont="0"/>
        <request index="11" response="0000000000000000" foes="1100000011110000" cont="0"/>
        <request index="12" response="0000000000001100" foes="0000000000001100" cont="0"/>
        <request index="13" response="0000000000001100" foes="0000000000001100" cont="0"/>
        <request index="14" response="0000111100001100" foes="0000111100001100" cont="0"/>
        <request index="15" response="0000111100001100" foes="0000111100001100" cont="0"/>
    </junction>

    <connection from="RoadEM" to="RoadMN" fromLane="0" toLane="0" via=":TCS_4_0" tl="TCS" linkIndex="4" dir="r" state="o"/>
    <connection from="RoadEM" to="RoadMN" fromLane="1" toLane="1" via=":TCS_4_1" tl="TCS" linkIndex="5" dir="r" state="o"/>
    <connection from="RoadEM" to="RoadME" fromLane="1" toLane="1" via=":TCS_6_0" tl="TCS" linkIndex="6" dir="s" state="o"/>
    <connection from="RoadEM" to="RoadME" fromLane="2" toLane="2" via=":TCS_6_1" tl="TCS" linkIndex="7" dir="s" state="o"/>
    <connection from="RoadNM" to="RoadME" fromLane="0" toLane="0" via=":TCS_0_0" tl="TCS" linkIndex="0" dir="r" state="O"/>
    <connection from="RoadNM" to="RoadME" fromLane="1" toLane="1" via=":TCS_0_1" tl="TCS" linkIndex="1" dir="r" state="O"/>
    <connection from="RoadNM" to="RoadMS" fromLane="1" toLane="1" via=":TCS_2_0" tl="TCS" linkIndex="2" dir="s" state="O"/>
    <connection from="RoadNM" to="RoadMS" fromLane="2" toLane="2" via=":TCS_2_1" tl="TCS" linkIndex="3" dir="s" state="O"/>
    <connection from="RoadSM" to="RoadMW" fromLane="0" toLane="0" via=":TCS_8_0" tl="TCS" linkIndex="8" dir="r" state="O"/>
    <connection from="RoadSM" to="RoadMW" fromLane="1" toLane="1" via=":TCS_8_1" tl="TCS" linkIndex="9" dir="r" state="O"/>
    <connection from="RoadSM" to="RoadMN" fromLane="1" toLane="1" via=":TCS_10_0" tl="TCS" linkIndex="10" dir="s" state="O"/>
    <connection from="RoadSM" to="RoadMN" fromLane="2" toLane="2" via=":TCS_10_1" tl="TCS" linkIndex="11" dir="s" state="O"/>
    <connection from="RoadWM" to="RoadMS" fromLane="0" toLane="0" via=":TCS_12_0" tl="TCS" linkIndex="12" dir="r" state="o"/>
    <connection from="RoadWM" to="RoadMS" fromLane="1" toLane="1" via=":TCS_12_1" tl="TCS" linkIndex="13" dir="r" state="o"/>
    <connection from="RoadWM" to="RoadMW" fromLane="1" toLane="1" via=":TCS_14_0" tl="TCS" linkIndex="14" dir="s" state="o"/>
    <connection from="RoadWM" to="RoadMW" fromLane="2" toLane="2" via=":TCS_14_1" tl="TCS" linkIndex="15" dir="s" state="o"/>

    <connection from=":TCS_0" to="RoadME" fromLane="0" toLane="0" dir="r" state="M"/>
    <connection from=":TCS_0" to="RoadME" fromLane="1" toLane="1" dir="r" state="M"/>
    <connection from=":TCS_2" to="RoadMS" fromLane="0" toLane="1" dir="s" state="M"/>
    <connection from=":TCS_2" to="RoadMS" fromLane="1" toLane="2" dir="s" state="M"/>
    <connection from=":TCS_4" to="RoadMN" fromLane="0" toLane="0" dir="r" state="M"/>
    <connection from=":TCS_4" to="RoadMN" fromLane="1" toLane="1" dir="r" state="M"/>
    <connection from=":TCS_6" to="RoadME" fromLane="0" toLane="1" dir="s" state="M"/>
    <connection from=":TCS_6" to="RoadME" fromLane="1" toLane="2" dir="s" state="M"/>
    <connection from=":TCS_8" to="RoadMW" fromLane="0" toLane="0" dir="r" state="M"/>
    <connection from=":TCS_8" to="RoadMW" fromLane="1" toLane="1" dir="r" state="M"/>
    <connection from=":TCS_10" to="RoadMN" fromLane="0" toLane="1" dir="s" state="M"/>
    <connection from=":TCS_10" to="RoadMN" fromLane="1" toLane="2" dir="s" state="M"/>
    <connection from=":TCS_12" to="RoadMS" fromLane="0" toLane="0" dir="r" state="M"/>
    <connection from=":TCS_12" to="RoadMS" fromLane="1" toLane="1" dir="r" state="M"/>
    <connection from=":TCS_14" to="RoadMW" fromLane="0" toLane="1" dir="s" state="M"/>
    <connection from=":TCS_14" to="RoadMW" fromLane="1" toLane="2" dir="s" state="M"/>

</net>
